 ****** HSPICE -- A-2008.03 32-BIT (Feb 26 2008) winnt ******                   
  Copyright (C) 2008 Synopsys, Inc. All Rights Reserved.                        
  Unpublished-rights reserved under US copyright laws.
  This program is protected by law and is subject to the 
  terms and conditions of the license agreement found in:
    C:\synopsys\Hspice_A-2008.03\license.warn
  Use of this program is your acceptance to be bound by this 
  license agreement. HSPICE is the trademark of Synopsys, Inc.
  Input File: c:\users\18851\desktop\gnrfet_spice_models_uiuc\gnrfet_model\mos-g
 Init: read install configuration file: C:\synopsys\Hspice_A-2008.03\meta.cfg
 Init: hspice initialization file: C:\synopsys\Hspice_A-2008.03\hspice.ini




 * graphene nanoribbon field effect transistors
 *             hspice model
 *	     
 *
 *   
 *   copyright university of illinois at urbana-champaign 2013
 *   ying-yu chen, artem rogachev, amit sangai, prof. deming chen
 *   all rights reserved.
 *
 *
 *   
 *   file name: gnrfet_sample.sp
 ********************************************************************

 ********************************************************************
 * license agreement
 * university of illinois at urbana-champaign and the authors 
 * provide these model files to you subject to the license agreement, 
 * which may be updated by us from time to time without notice to you. 
 ********************************************************************


 ***************************************************
 *
 *sample hspice deck
 *
 ***************************************************


 .title 'ids vs vgs for gnrfet'


 ***************************************************
 *for optimal accuracy, convergence, and runtime
 ***************************************************
 .options post
 .options autostop
 .options ingold=2     dcon=1
 .options gshunt=1e-12 rmin=1e-15 
 .options abstol=1e-5  absvdc=1e-4 
 .options reltol=1e-2  relvdc=1e-2 
 .options numdgt=4     pivot=13

 .param   temp=27
 ***************************************************


 ***************************************************
 *include relevant model files
 ***************************************************
 .lib 'gnrfet.lib' gnrfet
 .endl gnrfet
 ***************************************************
 *supplies and voltage params:
 .param supply=0.5 	
 .param vg='supply'
 .param vd='supply'


 ***********************************************************************
 * define power supply
 ***********************************************************************
 vdd     drain     gnd     vd
 vss     source    gnd     0
 vgg 	  gate	gnd	  vg
 vsub    sub       gnd     0

 ***********************************************************************
 * main circuits
 ***********************************************************************
 * n type gnrfet
 xgnr drain gate source sub gnrfetnmos nrib=6 n=12 l=32n tox=0.95n sp=2n dop=0.001 p=0 

 * p type gnrfet
 *xgnr drain gate source sub gnrfetpmos nrib=6 n=12 l=32n tox=0.95n sp=2n dop=0.001 p=0 

 ***********************************************************************
 * measurements
 ***********************************************************************
 * test n type gnrfet, ids vs. vgs
 .dc      vgg   start=0     stop='supply'   step='0.01*supply' 
 + sweep  vdd   start=0     stop='supply'   step='0.1*supply'

 * test p type gnrfet, ids vs. vgs
 *.dc      vgg   start=0     stop='-supply'   step='-0.01*supply' 
 *+ sweep  vdd   start=0     stop='-supply'   step='-0.1*supply'

 ***********************************************************************

 .print i(vdd)

 .end 
1****** HSPICE -- A-2008.03 32-BIT (Feb 26 2008) winnt ******                   
 ******  
  'ids vs vgs for gnrfet'                                                       
  ******  circuit name directory                                                
 ******  
 circuit number to circuit name directory
   number circuitname                     definition         multiplier
        0 main circuit
 
      
  Opening plot unit= 79
 file=c:\users\18851\desktop\gnrfet_spice_models_uiuc\gnrfet_model\mos-gnrfet\g

 ******  
  'ids vs vgs for gnrfet'                                                       
  ******  dc transfer curves               tnom=  25.000 temp=  25.000          
 ******  

   *** source        0:vdd              =    0.            ***

x

        volt    current    
                    vdd    
    0.          2.675e-18  
  5.0000e-03   -1.393e-14  
  1.0000e-02   -2.790e-14  
  1.5000e-02   -4.183e-14  
  2.0000e-02   -5.579e-14  
  2.5000e-02   -6.951e-14  
  3.0000e-02   -8.340e-14  
  3.5000e-02   -9.759e-14  
  4.0000e-02   -1.116e-13  
  4.5000e-02   -1.255e-13  
  5.0000e-02   -1.396e-13  
  5.5000e-02   -1.534e-13  
  6.0000e-02   -1.675e-13  
  6.5000e-02   -1.814e-13  
  7.0000e-02   -1.953e-13  
  7.5000e-02   -2.090e-13  
  8.0000e-02   -2.231e-13  
  8.5000e-02   -2.371e-13  
  9.0000e-02   -2.517e-13  
  9.5000e-02   -2.651e-13  
  1.0000e-01   -2.793e-13  
  1.0500e-01   -2.931e-13  
  1.1000e-01   -3.067e-13  
  1.1500e-01   -3.210e-13  
  1.2000e-01   -3.345e-13  
  1.2500e-01   -3.488e-13  
  1.3000e-01   -3.623e-13  
  1.3500e-01   -3.760e-13  
  1.4000e-01   -3.900e-13  
  1.4500e-01   -4.043e-13  
  1.5000e-01   -4.179e-13  
  1.5500e-01   -4.314e-13  
  1.6000e-01   -4.462e-13  
  1.6500e-01   -4.597e-13  
  1.7000e-01   -4.736e-13  
  1.7500e-01   -4.871e-13  
  1.8000e-01   -5.006e-13  
  1.8500e-01   -5.135e-13  
  1.9000e-01   -5.284e-13  
  1.9500e-01   -5.420e-13  
  2.0000e-01   -5.567e-13  
  2.0500e-01   -5.703e-13  
  2.1000e-01   -5.820e-13  
  2.1500e-01   -5.955e-13  
  2.2000e-01   -6.088e-13  
  2.2500e-01   -6.209e-13  
  2.3000e-01   -6.346e-13  
  2.3500e-01   -6.488e-13  
  2.4000e-01   -6.606e-13  
  2.4500e-01   -6.733e-13  
  2.5000e-01   -6.861e-13  
  2.5500e-01   -6.995e-13  
  2.6000e-01   -7.106e-13  
  2.6500e-01   -7.231e-13  
  2.7000e-01   -7.336e-13  
  2.7500e-01   -7.439e-13  
  2.8000e-01   -7.546e-13  
  2.8500e-01   -7.652e-13  
  2.9000e-01   -7.801e-13  
  2.9500e-01   -7.891e-13  
  3.0000e-01   -8.003e-13  
  3.0500e-01   -8.070e-13  
  3.1000e-01   -8.202e-13  
  3.1500e-01   -8.289e-13  
  3.2000e-01   -8.393e-13  
  3.2500e-01   -8.506e-13  
  3.3000e-01   -8.599e-13  
  3.3500e-01   -8.675e-13  
  3.4000e-01   -8.767e-13  
  3.4500e-01   -8.877e-13  
  3.5000e-01   -8.986e-13  
  3.5500e-01   -9.077e-13  
  3.6000e-01   -9.150e-13  
  3.6500e-01   -9.258e-13  
  3.7000e-01   -9.312e-13  
  3.7500e-01   -9.419e-13  
  3.8000e-01   -9.455e-13  
  3.8500e-01   -9.553e-13  
  3.9000e-01   -9.624e-13  
  3.9500e-01   -9.748e-13  
  4.0000e-01   -9.774e-13  
  4.0500e-01   -9.942e-13  
  4.1000e-01   -9.978e-13  
  4.1500e-01   -1.004e-12  
  4.2000e-01   -1.019e-12  
  4.2500e-01   -1.021e-12  
  4.3000e-01   -1.032e-12  
  4.3500e-01   -1.042e-12  
  4.4000e-01   -1.044e-12  
  4.4500e-01   -1.053e-12  
  4.5000e-01   -1.063e-12  
  4.5500e-01   -1.065e-12  
  4.6000e-01   -1.079e-12  
  4.6500e-01   -1.084e-12  
  4.7000e-01   -1.092e-12  
  4.7500e-01   -1.102e-12  
  4.8000e-01   -1.105e-12  
  4.8500e-01   -1.113e-12  
  4.9000e-01   -1.114e-12  
  4.9500e-01   -1.130e-12  
  5.0000e-01   -1.134e-12  
y

          ***** job concluded
 ******  
  'ids vs vgs for gnrfet'                                                       
  ******  dc transfer curves               tnom=  25.000 temp=  25.000          
 ******  

   *** source        0:vdd              =  5.000e-02       ***

x

        volt    current    
                    vdd    
    0.         -1.144e-10  
  5.0000e-03   -1.361e-10  
  1.0000e-02   -1.619e-10  
  1.5000e-02   -1.925e-10  
  2.0000e-02   -2.290e-10  
  2.5000e-02   -2.724e-10  
  3.0000e-02   -3.240e-10  
  3.5000e-02   -3.853e-10  
  4.0000e-02   -4.583e-10  
  4.5000e-02   -5.451e-10  
  5.0000e-02   -6.483e-10  
  5.5000e-02   -7.711e-10  
  6.0000e-02   -9.172e-10  
  6.5000e-02   -1.091e-09  
  7.0000e-02   -1.297e-09  
  7.5000e-02   -1.543e-09  
  8.0000e-02   -1.835e-09  
  8.5000e-02   -2.183e-09  
  9.0000e-02   -2.596e-09  
  9.5000e-02   -3.087e-09  
  1.0000e-01   -3.671e-09  
  1.0500e-01   -4.366e-09  
  1.1000e-01   -5.191e-09  
  1.1500e-01   -6.173e-09  
  1.2000e-01   -7.339e-09  
  1.2500e-01   -8.725e-09  
  1.3000e-01   -1.037e-08  
  1.3500e-01   -1.233e-08  
  1.4000e-01   -1.465e-08  
  1.4500e-01   -1.741e-08  
  1.5000e-01   -2.068e-08  
  1.5500e-01   -2.457e-08  
  1.6000e-01   -2.917e-08  
  1.6500e-01   -3.463e-08  
  1.7000e-01   -4.109e-08  
  1.7500e-01   -4.874e-08  
  1.8000e-01   -5.778e-08  
  1.8500e-01   -6.846e-08  
  1.9000e-01   -8.105e-08  
  1.9500e-01   -9.588e-08  
  2.0000e-01   -1.133e-07  
  2.0500e-01   -1.338e-07  
  2.1000e-01   -1.577e-07  
  2.1500e-01   -1.857e-07  
  2.2000e-01   -2.182e-07  
  2.2500e-01   -2.559e-07  
  2.3000e-01   -2.996e-07  
  2.3500e-01   -3.498e-07  
  2.4000e-01   -4.073e-07  
  2.4500e-01   -4.729e-07  
  2.5000e-01   -5.473e-07  
  2.5500e-01   -6.312e-07  
  2.6000e-01   -7.253e-07  
  2.6500e-01   -8.302e-07  
  2.7000e-01   -9.465e-07  
  2.7500e-01   -1.074e-06  
  2.8000e-01   -1.215e-06  
  2.8500e-01   -1.367e-06  
  2.9000e-01   -1.532e-06  
  2.9500e-01   -1.709e-06  
  3.0000e-01   -1.899e-06  
  3.0500e-01   -2.100e-06  
  3.1000e-01   -2.314e-06  
  3.1500e-01   -2.540e-06  
  3.2000e-01   -2.777e-06  
  3.2500e-01   -3.025e-06  
  3.3000e-01   -3.284e-06  
  3.3500e-01   -3.553e-06  
  3.4000e-01   -3.832e-06  
  3.4500e-01   -4.121e-06  
  3.5000e-01   -4.419e-06  
  3.5500e-01   -4.728e-06  
  3.6000e-01   -5.045e-06  
  3.6500e-01   -5.373e-06  
  3.7000e-01   -5.711e-06  
  3.7500e-01   -6.060e-06  
  3.8000e-01   -6.422e-06  
  3.8500e-01   -6.762e-06  
  3.9000e-01   -7.073e-06  
  3.9500e-01   -7.399e-06  
  4.0000e-01   -7.729e-06  
  4.0500e-01   -8.058e-06  
  4.1000e-01   -8.386e-06  
  4.1500e-01   -8.711e-06  
  4.2000e-01   -9.032e-06  
  4.2500e-01   -9.348e-06  
  4.3000e-01   -9.659e-06  
  4.3500e-01   -9.966e-06  
  4.4000e-01   -1.027e-05  
  4.4500e-01   -1.056e-05  
  4.5000e-01   -1.085e-05  
  4.5500e-01   -1.114e-05  
  4.6000e-01   -1.142e-05  
  4.6500e-01   -1.170e-05  
  4.7000e-01   -1.198e-05  
  4.7500e-01   -1.225e-05  
  4.8000e-01   -1.252e-05  
  4.8500e-01   -1.279e-05  
  4.9000e-01   -1.306e-05  
  4.9500e-01   -1.332e-05  
  5.0000e-01   -1.359e-05  
y

          ***** job concluded
 ******  
  'ids vs vgs for gnrfet'                                                       
  ******  dc transfer curves               tnom=  25.000 temp=  25.000          
 ******  

   *** source        0:vdd              =  1.000e-01       ***

x

        volt    current    
                    vdd    
    0.         -1.598e-10  
  5.0000e-03   -1.901e-10  
  1.0000e-02   -2.261e-10  
  1.5000e-02   -2.689e-10  
  2.0000e-02   -3.198e-10  
  2.5000e-02   -3.804e-10  
  3.0000e-02   -4.524e-10  
  3.5000e-02   -5.381e-10  
  4.0000e-02   -6.400e-10  
  4.5000e-02   -7.612e-10  
  5.0000e-02   -9.053e-10  
  5.5000e-02   -1.077e-09  
  6.0000e-02   -1.281e-09  
  6.5000e-02   -1.523e-09  
  7.0000e-02   -1.812e-09  
  7.5000e-02   -2.155e-09  
  8.0000e-02   -2.562e-09  
  8.5000e-02   -3.048e-09  
  9.0000e-02   -3.624e-09  
  9.5000e-02   -4.310e-09  
  1.0000e-01   -5.126e-09  
  1.0500e-01   -6.095e-09  
  1.1000e-01   -7.247e-09  
  1.1500e-01   -8.617e-09  
  1.2000e-01   -1.025e-08  
  1.2500e-01   -1.218e-08  
  1.3000e-01   -1.448e-08  
  1.3500e-01   -1.721e-08  
  1.4000e-01   -2.045e-08  
  1.4500e-01   -2.430e-08  
  1.5000e-01   -2.886e-08  
  1.5500e-01   -3.428e-08  
  1.6000e-01   -4.070e-08  
  1.6500e-01   -4.830e-08  
  1.7000e-01   -5.731e-08  
  1.7500e-01   -6.795e-08  
  1.8000e-01   -8.054e-08  
  1.8500e-01   -9.539e-08  
  1.9000e-01   -1.129e-07  
  1.9500e-01   -1.335e-07  
  2.0000e-01   -1.577e-07  
  2.0500e-01   -1.860e-07  
  2.1000e-01   -2.192e-07  
  2.1500e-01   -2.578e-07  
  2.2000e-01   -3.028e-07  
  2.2500e-01   -3.548e-07  
  2.3000e-01   -4.149e-07  
  2.3500e-01   -4.839e-07  
  2.4000e-01   -5.628e-07  
  2.4500e-01   -6.526e-07  
  2.5000e-01   -7.543e-07  
  2.5500e-01   -8.689e-07  
  2.6000e-01   -9.971e-07  
  2.6500e-01   -1.140e-06  
  2.7000e-01   -1.298e-06  
  2.7500e-01   -1.472e-06  
  2.8000e-01   -1.662e-06  
  2.8500e-01   -1.869e-06  
  2.9000e-01   -2.094e-06  
  2.9500e-01   -2.335e-06  
  3.0000e-01   -2.594e-06  
  3.0500e-01   -2.871e-06  
  3.1000e-01   -3.165e-06  
  3.1500e-01   -3.476e-06  
  3.2000e-01   -3.806e-06  
  3.2500e-01   -4.152e-06  
  3.3000e-01   -4.517e-06  
  3.3500e-01   -4.899e-06  
  3.4000e-01   -5.300e-06  
  3.4500e-01   -5.720e-06  
  3.5000e-01   -6.161e-06  
  3.5500e-01   -6.623e-06  
  3.6000e-01   -7.110e-06  
  3.6500e-01   -7.625e-06  
  3.7000e-01   -8.130e-06  
  3.7500e-01   -8.580e-06  
  3.8000e-01   -9.063e-06  
  3.8500e-01   -9.558e-06  
  3.9000e-01   -1.006e-05  
  3.9500e-01   -1.056e-05  
  4.0000e-01   -1.107e-05  
  4.0500e-01   -1.157e-05  
  4.1000e-01   -1.207e-05  
  4.1500e-01   -1.257e-05  
  4.2000e-01   -1.306e-05  
  4.2500e-01   -1.355e-05  
  4.3000e-01   -1.404e-05  
  4.3500e-01   -1.453e-05  
  4.4000e-01   -1.502e-05  
  4.4500e-01   -1.551e-05  
  4.5000e-01   -1.600e-05  
  4.5500e-01   -1.649e-05  
  4.6000e-01   -1.699e-05  
  4.6500e-01   -1.750e-05  
  4.7000e-01   -1.801e-05  
  4.7500e-01   -1.853e-05  
  4.8000e-01   -1.906e-05  
  4.8500e-01   -1.960e-05  
  4.9000e-01   -2.015e-05  
  4.9500e-01   -2.071e-05  
  5.0000e-01   -2.127e-05  
y

          ***** job concluded
 ******  
  'ids vs vgs for gnrfet'                                                       
  ******  dc transfer curves               tnom=  25.000 temp=  25.000          
 ******  

   *** source        0:vdd              =  1.500e-01       ***

x

        volt    current    
                    vdd    
    0.         -1.986e-10  
  5.0000e-03   -2.362e-10  
  1.0000e-02   -2.809e-10  
  1.5000e-02   -3.341e-10  
  2.0000e-02   -3.973e-10  
  2.5000e-02   -4.726e-10  
  3.0000e-02   -5.620e-10  
  3.5000e-02   -6.684e-10  
  4.0000e-02   -7.950e-10  
  4.5000e-02   -9.455e-10  
  5.0000e-02   -1.125e-09  
  5.5000e-02   -1.338e-09  
  6.0000e-02   -1.591e-09  
  6.5000e-02   -1.892e-09  
  7.0000e-02   -2.250e-09  
  7.5000e-02   -2.676e-09  
  8.0000e-02   -3.183e-09  
  8.5000e-02   -3.785e-09  
  9.0000e-02   -4.501e-09  
  9.5000e-02   -5.353e-09  
  1.0000e-01   -6.365e-09  
  1.0500e-01   -7.569e-09  
  1.1000e-01   -8.999e-09  
  1.1500e-01   -1.070e-08  
  1.2000e-01   -1.272e-08  
  1.2500e-01   -1.512e-08  
  1.3000e-01   -1.797e-08  
  1.3500e-01   -2.136e-08  
  1.4000e-01   -2.537e-08  
  1.4500e-01   -3.014e-08  
  1.5000e-01   -3.580e-08  
  1.5500e-01   -4.250e-08  
  1.6000e-01   -5.044e-08  
  1.6500e-01   -5.984e-08  
  1.7000e-01   -7.096e-08  
  1.7500e-01   -8.410e-08  
  1.8000e-01   -9.960e-08  
  1.8500e-01   -1.179e-07  
  1.9000e-01   -1.394e-07  
  1.9500e-01   -1.646e-07  
  2.0000e-01   -1.942e-07  
  2.0500e-01   -2.288e-07  
  2.1000e-01   -2.691e-07  
  2.1500e-01   -3.160e-07  
  2.2000e-01   -3.703e-07  
  2.2500e-01   -4.330e-07  
  2.3000e-01   -5.049e-07  
  2.3500e-01   -5.872e-07  
  2.4000e-01   -6.809e-07  
  2.4500e-01   -7.870e-07  
  2.5000e-01   -9.064e-07  
  2.5500e-01   -1.040e-06  
  2.6000e-01   -1.189e-06  
  2.6500e-01   -1.354e-06  
  2.7000e-01   -1.535e-06  
  2.7500e-01   -1.734e-06  
  2.8000e-01   -1.950e-06  
  2.8500e-01   -2.184e-06  
  2.9000e-01   -2.437e-06  
  2.9500e-01   -2.708e-06  
  3.0000e-01   -2.997e-06  
  3.0500e-01   -3.306e-06  
  3.1000e-01   -3.633e-06  
  3.1500e-01   -3.978e-06  
  3.2000e-01   -4.344e-06  
  3.2500e-01   -4.728e-06  
  3.3000e-01   -5.132e-06  
  3.3500e-01   -5.557e-06  
  3.4000e-01   -6.004e-06  
  3.4500e-01   -6.474e-06  
  3.5000e-01   -6.970e-06  
  3.5500e-01   -7.496e-06  
  3.6000e-01   -8.057e-06  
  3.6500e-01   -8.543e-06  
  3.7000e-01   -9.044e-06  
  3.7500e-01   -9.567e-06  
  3.8000e-01   -1.010e-05  
  3.8500e-01   -1.064e-05  
  3.9000e-01   -1.118e-05  
  3.9500e-01   -1.173e-05  
  4.0000e-01   -1.227e-05  
  4.0500e-01   -1.282e-05  
  4.1000e-01   -1.336e-05  
  4.1500e-01   -1.390e-05  
  4.2000e-01   -1.444e-05  
  4.2500e-01   -1.498e-05  
  4.3000e-01   -1.552e-05  
  4.3500e-01   -1.606e-05  
  4.4000e-01   -1.661e-05  
  4.4500e-01   -1.717e-05  
  4.5000e-01   -1.774e-05  
  4.5500e-01   -1.832e-05  
  4.6000e-01   -1.891e-05  
  4.6500e-01   -1.952e-05  
  4.7000e-01   -2.015e-05  
  4.7500e-01   -2.079e-05  
  4.8000e-01   -2.145e-05  
  4.8500e-01   -2.212e-05  
  4.9000e-01   -2.282e-05  
  4.9500e-01   -2.353e-05  
  5.0000e-01   -2.426e-05  
y

          ***** job concluded
 ******  
  'ids vs vgs for gnrfet'                                                       
  ******  dc transfer curves               tnom=  25.000 temp=  25.000          
 ******  

   *** source        0:vdd              =  2.000e-01       ***

x

        volt    current    
                    vdd    
    0.         -2.430e-10  
  5.0000e-03   -2.889e-10  
  1.0000e-02   -3.436e-10  
  1.5000e-02   -4.087e-10  
  2.0000e-02   -4.860e-10  
  2.5000e-02   -5.780e-10  
  3.0000e-02   -6.874e-10  
  3.5000e-02   -8.176e-10  
  4.0000e-02   -9.724e-10  
  4.5000e-02   -1.156e-09  
  5.0000e-02   -1.375e-09  
  5.5000e-02   -1.636e-09  
  6.0000e-02   -1.946e-09  
  6.5000e-02   -2.314e-09  
  7.0000e-02   -2.752e-09  
  7.5000e-02   -3.273e-09  
  8.0000e-02   -3.892e-09  
  8.5000e-02   -4.629e-09  
  9.0000e-02   -5.504e-09  
  9.5000e-02   -6.545e-09  
  1.0000e-01   -7.783e-09  
  1.0500e-01   -9.254e-09  
  1.1000e-01   -1.100e-08  
  1.1500e-01   -1.308e-08  
  1.2000e-01   -1.555e-08  
  1.2500e-01   -1.848e-08  
  1.3000e-01   -2.196e-08  
  1.3500e-01   -2.609e-08  
  1.4000e-01   -3.099e-08  
  1.4500e-01   -3.680e-08  
  1.5000e-01   -4.369e-08  
  1.5500e-01   -5.185e-08  
  1.6000e-01   -6.151e-08  
  1.6500e-01   -7.293e-08  
  1.7000e-01   -8.643e-08  
  1.7500e-01   -1.024e-07  
  1.8000e-01   -1.211e-07  
  1.8500e-01   -1.432e-07  
  1.9000e-01   -1.691e-07  
  1.9500e-01   -1.995e-07  
  2.0000e-01   -2.350e-07  
  2.0500e-01   -2.763e-07  
  2.1000e-01   -3.244e-07  
  2.1500e-01   -3.800e-07  
  2.2000e-01   -4.441e-07  
  2.2500e-01   -5.178e-07  
  2.3000e-01   -6.020e-07  
  2.3500e-01   -6.977e-07  
  2.4000e-01   -8.061e-07  
  2.4500e-01   -9.280e-07  
  2.5000e-01   -1.064e-06  
  2.5500e-01   -1.216e-06  
  2.6000e-01   -1.384e-06  
  2.6500e-01   -1.569e-06  
  2.7000e-01   -1.771e-06  
  2.7500e-01   -1.991e-06  
  2.8000e-01   -2.229e-06  
  2.8500e-01   -2.485e-06  
  2.9000e-01   -2.760e-06  
  2.9500e-01   -3.054e-06  
  3.0000e-01   -3.366e-06  
  3.0500e-01   -3.698e-06  
  3.1000e-01   -4.049e-06  
  3.1500e-01   -4.419e-06  
  3.2000e-01   -4.809e-06  
  3.2500e-01   -5.220e-06  
  3.3000e-01   -5.651e-06  
  3.3500e-01   -6.105e-06  
  3.4000e-01   -6.582e-06  
  3.4500e-01   -7.087e-06  
  3.5000e-01   -7.623e-06  
  3.5500e-01   -8.197e-06  
  3.6000e-01   -8.668e-06  
  3.6500e-01   -9.180e-06  
  3.7000e-01   -9.711e-06  
  3.7500e-01   -1.025e-05  
  3.8000e-01   -1.080e-05  
  3.8500e-01   -1.135e-05  
  3.9000e-01   -1.190e-05  
  3.9500e-01   -1.245e-05  
  4.0000e-01   -1.300e-05  
  4.0500e-01   -1.355e-05  
  4.1000e-01   -1.410e-05  
  4.1500e-01   -1.464e-05  
  4.2000e-01   -1.519e-05  
  4.2500e-01   -1.574e-05  
  4.3000e-01   -1.630e-05  
  4.3500e-01   -1.686e-05  
  4.4000e-01   -1.743e-05  
  4.4500e-01   -1.802e-05  
  4.5000e-01   -1.861e-05  
  4.5500e-01   -1.922e-05  
  4.6000e-01   -1.985e-05  
  4.6500e-01   -2.050e-05  
  4.7000e-01   -2.116e-05  
  4.7500e-01   -2.185e-05  
  4.8000e-01   -2.255e-05  
  4.8500e-01   -2.328e-05  
  4.9000e-01   -2.403e-05  
  4.9500e-01   -2.480e-05  
  5.0000e-01   -2.558e-05  
y

          ***** job concluded
 ******  
  'ids vs vgs for gnrfet'                                                       
  ******  dc transfer curves               tnom=  25.000 temp=  25.000          
 ******  

   *** source        0:vdd              =  2.500e-01       ***

x

        volt    current    
                    vdd    
    0.         -2.965e-10  
  5.0000e-03   -3.526e-10  
  1.0000e-02   -4.194e-10  
  1.5000e-02   -4.987e-10  
  2.0000e-02   -5.931e-10  
  2.5000e-02   -7.054e-10  
  3.0000e-02   -8.389e-10  
  3.5000e-02   -9.977e-10  
  4.0000e-02   -1.187e-09  
  4.5000e-02   -1.411e-09  
  5.0000e-02   -1.678e-09  
  5.5000e-02   -1.996e-09  
  6.0000e-02   -2.374e-09  
  6.5000e-02   -2.824e-09  
  7.0000e-02   -3.358e-09  
  7.5000e-02   -3.993e-09  
  8.0000e-02   -4.749e-09  
  8.5000e-02   -5.647e-09  
  9.0000e-02   -6.715e-09  
  9.5000e-02   -7.985e-09  
  1.0000e-01   -9.494e-09  
  1.0500e-01   -1.129e-08  
  1.1000e-01   -1.342e-08  
  1.1500e-01   -1.595e-08  
  1.2000e-01   -1.895e-08  
  1.2500e-01   -2.252e-08  
  1.3000e-01   -2.676e-08  
  1.3500e-01   -3.179e-08  
  1.4000e-01   -3.775e-08  
  1.4500e-01   -4.481e-08  
  1.5000e-01   -5.318e-08  
  1.5500e-01   -6.308e-08  
  1.6000e-01   -7.479e-08  
  1.6500e-01   -8.863e-08  
  1.7000e-01   -1.049e-07  
  1.7500e-01   -1.242e-07  
  1.8000e-01   -1.468e-07  
  1.8500e-01   -1.733e-07  
  1.9000e-01   -2.044e-07  
  1.9500e-01   -2.407e-07  
  2.0000e-01   -2.830e-07  
  2.0500e-01   -3.321e-07  
  2.1000e-01   -3.889e-07  
  2.1500e-01   -4.544e-07  
  2.2000e-01   -5.296e-07  
  2.2500e-01   -6.155e-07  
  2.3000e-01   -7.130e-07  
  2.3500e-01   -8.233e-07  
  2.4000e-01   -9.474e-07  
  2.4500e-01   -1.086e-06  
  2.5000e-01   -1.240e-06  
  2.5500e-01   -1.411e-06  
  2.6000e-01   -1.598e-06  
  2.6500e-01   -1.803e-06  
  2.7000e-01   -2.025e-06  
  2.7500e-01   -2.266e-06  
  2.8000e-01   -2.525e-06  
  2.8500e-01   -2.803e-06  
  2.9000e-01   -3.100e-06  
  2.9500e-01   -3.416e-06  
  3.0000e-01   -3.751e-06  
  3.0500e-01   -4.105e-06  
  3.1000e-01   -4.478e-06  
  3.1500e-01   -4.871e-06  
  3.2000e-01   -5.285e-06  
  3.2500e-01   -5.720e-06  
  3.3000e-01   -6.178e-06  
  3.3500e-01   -6.660e-06  
  3.4000e-01   -7.170e-06  
  3.4500e-01   -7.711e-06  
  3.5000e-01   -8.291e-06  
  3.5500e-01   -8.749e-06  
  3.6000e-01   -9.266e-06  
  3.6500e-01   -9.799e-06  
  3.7000e-01   -1.034e-05  
  3.7500e-01   -1.089e-05  
  3.8000e-01   -1.144e-05  
  3.8500e-01   -1.199e-05  
  3.9000e-01   -1.255e-05  
  3.9500e-01   -1.310e-05  
  4.0000e-01   -1.365e-05  
  4.0500e-01   -1.419e-05  
  4.1000e-01   -1.474e-05  
  4.1500e-01   -1.529e-05  
  4.2000e-01   -1.585e-05  
  4.2500e-01   -1.640e-05  
  4.3000e-01   -1.697e-05  
  4.3500e-01   -1.754e-05  
  4.4000e-01   -1.813e-05  
  4.4500e-01   -1.873e-05  
  4.5000e-01   -1.935e-05  
  4.5500e-01   -1.998e-05  
  4.6000e-01   -2.063e-05  
  4.6500e-01   -2.130e-05  
  4.7000e-01   -2.200e-05  
  4.7500e-01   -2.271e-05  
  4.8000e-01   -2.344e-05  
  4.8500e-01   -2.420e-05  
  4.9000e-01   -2.498e-05  
  4.9500e-01   -2.577e-05  
  5.0000e-01   -2.659e-05  
y

          ***** job concluded
 ******  
  'ids vs vgs for gnrfet'                                                       
  ******  dc transfer curves               tnom=  25.000 temp=  25.000          
 ******  

   *** source        0:vdd              =  3.000e-01       ***

x

        volt    current    
                    vdd    
    0.         -3.618e-10  
  5.0000e-03   -4.302e-10  
  1.0000e-02   -5.116e-10  
  1.5000e-02   -6.084e-10  
  2.0000e-02   -7.236e-10  
  2.5000e-02   -8.605e-10  
  3.0000e-02   -1.023e-09  
  3.5000e-02   -1.217e-09  
  4.0000e-02   -1.448e-09  
  4.5000e-02   -1.722e-09  
  5.0000e-02   -2.048e-09  
  5.5000e-02   -2.435e-09  
  6.0000e-02   -2.896e-09  
  6.5000e-02   -3.444e-09  
  7.0000e-02   -4.096e-09  
  7.5000e-02   -4.871e-09  
  8.0000e-02   -5.792e-09  
  8.5000e-02   -6.888e-09  
  9.0000e-02   -8.190e-09  
  9.5000e-02   -9.737e-09  
  1.0000e-01   -1.158e-08  
  1.0500e-01   -1.376e-08  
  1.1000e-01   -1.636e-08  
  1.1500e-01   -1.944e-08  
  1.2000e-01   -2.310e-08  
  1.2500e-01   -2.744e-08  
  1.3000e-01   -3.260e-08  
  1.3500e-01   -3.871e-08  
  1.4000e-01   -4.595e-08  
  1.4500e-01   -5.453e-08  
  1.5000e-01   -6.468e-08  
  1.5500e-01   -7.667e-08  
  1.6000e-01   -9.085e-08  
  1.6500e-01   -1.076e-07  
  1.7000e-01   -1.272e-07  
  1.7500e-01   -1.504e-07  
  1.8000e-01   -1.776e-07  
  1.8500e-01   -2.094e-07  
  1.9000e-01   -2.465e-07  
  1.9500e-01   -2.897e-07  
  2.0000e-01   -3.399e-07  
  2.0500e-01   -3.980e-07  
  2.1000e-01   -4.648e-07  
  2.1500e-01   -5.415e-07  
  2.2000e-01   -6.290e-07  
  2.2500e-01   -7.283e-07  
  2.3000e-01   -8.406e-07  
  2.3500e-01   -9.667e-07  
  2.4000e-01   -1.108e-06  
  2.4500e-01   -1.264e-06  
  2.5000e-01   -1.437e-06  
  2.5500e-01   -1.627e-06  
  2.6000e-01   -1.834e-06  
  2.6500e-01   -2.059e-06  
  2.7000e-01   -2.303e-06  
  2.7500e-01   -2.565e-06  
  2.8000e-01   -2.846e-06  
  2.8500e-01   -3.145e-06  
  2.9000e-01   -3.464e-06  
  2.9500e-01   -3.801e-06  
  3.0000e-01   -4.158e-06  
  3.0500e-01   -4.535e-06  
  3.1000e-01   -4.931e-06  
  3.1500e-01   -5.348e-06  
  3.2000e-01   -5.786e-06  
  3.2500e-01   -6.247e-06  
  3.3000e-01   -6.733e-06  
  3.3500e-01   -7.247e-06  
  3.4000e-01   -7.795e-06  
  3.4500e-01   -8.353e-06  
  3.5000e-01   -8.824e-06  
  3.5500e-01   -9.344e-06  
  3.6000e-01   -9.879e-06  
  3.6500e-01   -1.042e-05  
  3.7000e-01   -1.097e-05  
  3.7500e-01   -1.152e-05  
  3.8000e-01   -1.208e-05  
  3.8500e-01   -1.263e-05  
  3.9000e-01   -1.318e-05  
  3.9500e-01   -1.373e-05  
  4.0000e-01   -1.428e-05  
  4.0500e-01   -1.483e-05  
  4.1000e-01   -1.538e-05  
  4.1500e-01   -1.593e-05  
  4.2000e-01   -1.649e-05  
  4.2500e-01   -1.706e-05  
  4.3000e-01   -1.763e-05  
  4.3500e-01   -1.822e-05  
  4.4000e-01   -1.882e-05  
  4.4500e-01   -1.944e-05  
  4.5000e-01   -2.008e-05  
  4.5500e-01   -2.073e-05  
  4.6000e-01   -2.141e-05  
  4.6500e-01   -2.210e-05  
  4.7000e-01   -2.282e-05  
  4.7500e-01   -2.356e-05  
  4.8000e-01   -2.432e-05  
  4.8500e-01   -2.510e-05  
  4.9000e-01   -2.590e-05  
  4.9500e-01   -2.672e-05  
  5.0000e-01   -2.755e-05  
y

          ***** job concluded
 ******  
  'ids vs vgs for gnrfet'                                                       
  ******  dc transfer curves               tnom=  25.000 temp=  25.000          
 ******  

   *** source        0:vdd              =  3.500e-01       ***

x

        volt    current    
                    vdd    
    0.         -4.413e-10  
  5.0000e-03   -5.248e-10  
  1.0000e-02   -6.241e-10  
  1.5000e-02   -7.422e-10  
  2.0000e-02   -8.827e-10  
  2.5000e-02   -1.050e-09  
  3.0000e-02   -1.248e-09  
  3.5000e-02   -1.485e-09  
  4.0000e-02   -1.766e-09  
  4.5000e-02   -2.100e-09  
  5.0000e-02   -2.498e-09  
  5.5000e-02   -2.970e-09  
  6.0000e-02   -3.532e-09  
  6.5000e-02   -4.201e-09  
  7.0000e-02   -4.996e-09  
  7.5000e-02   -5.941e-09  
  8.0000e-02   -7.064e-09  
  8.5000e-02   -8.399e-09  
  9.0000e-02   -9.986e-09  
  9.5000e-02   -1.187e-08  
  1.0000e-01   -1.411e-08  
  1.0500e-01   -1.677e-08  
  1.1000e-01   -1.993e-08  
  1.1500e-01   -2.369e-08  
  1.2000e-01   -2.814e-08  
  1.2500e-01   -3.342e-08  
  1.3000e-01   -3.969e-08  
  1.3500e-01   -4.711e-08  
  1.4000e-01   -5.590e-08  
  1.4500e-01   -6.630e-08  
  1.5000e-01   -7.860e-08  
  1.5500e-01   -9.312e-08  
  1.6000e-01   -1.102e-07  
  1.6500e-01   -1.304e-07  
  1.7000e-01   -1.541e-07  
  1.7500e-01   -1.819e-07  
  1.8000e-01   -2.144e-07  
  1.8500e-01   -2.524e-07  
  1.9000e-01   -2.966e-07  
  1.9500e-01   -3.479e-07  
  2.0000e-01   -4.071e-07  
  2.0500e-01   -4.754e-07  
  2.1000e-01   -5.535e-07  
  2.1500e-01   -6.427e-07  
  2.2000e-01   -7.439e-07  
  2.2500e-01   -8.581e-07  
  2.3000e-01   -9.863e-07  
  2.3500e-01   -1.129e-06  
  2.4000e-01   -1.288e-06  
  2.4500e-01   -1.464e-06  
  2.5000e-01   -1.656e-06  
  2.5500e-01   -1.866e-06  
  2.6000e-01   -2.094e-06  
  2.6500e-01   -2.340e-06  
  2.7000e-01   -2.605e-06  
  2.7500e-01   -2.888e-06  
  2.8000e-01   -3.191e-06  
  2.8500e-01   -3.512e-06  
  2.9000e-01   -3.852e-06  
  2.9500e-01   -4.212e-06  
  3.0000e-01   -4.591e-06  
  3.0500e-01   -4.990e-06  
  3.1000e-01   -5.410e-06  
  3.1500e-01   -5.852e-06  
  3.2000e-01   -6.316e-06  
  3.2500e-01   -6.806e-06  
  3.3000e-01   -7.325e-06  
  3.3500e-01   -7.878e-06  
  3.4000e-01   -8.410e-06  
  3.4500e-01   -8.899e-06  
  3.5000e-01   -9.422e-06  
  3.5500e-01   -9.958e-06  
  3.6000e-01   -1.050e-05  
  3.6500e-01   -1.105e-05  
  3.7000e-01   -1.160e-05  
  3.7500e-01   -1.216e-05  
  3.8000e-01   -1.271e-05  
  3.8500e-01   -1.326e-05  
  3.9000e-01   -1.381e-05  
  3.9500e-01   -1.436e-05  
  4.0000e-01   -1.491e-05  
  4.0500e-01   -1.546e-05  
  4.1000e-01   -1.601e-05  
  4.1500e-01   -1.657e-05  
  4.2000e-01   -1.714e-05  
  4.2500e-01   -1.772e-05  
  4.3000e-01   -1.831e-05  
  4.3500e-01   -1.891e-05  
  4.4000e-01   -1.954e-05  
  4.4500e-01   -2.017e-05  
  4.5000e-01   -2.083e-05  
  4.5500e-01   -2.151e-05  
  4.6000e-01   -2.221e-05  
  4.6500e-01   -2.293e-05  
  4.7000e-01   -2.367e-05  
  4.7500e-01   -2.443e-05  
  4.8000e-01   -2.522e-05  
  4.8500e-01   -2.602e-05  
  4.9000e-01   -2.684e-05  
  4.9500e-01   -2.768e-05  
  5.0000e-01   -2.854e-05  
y

          ***** job concluded
 ******  
  'ids vs vgs for gnrfet'                                                       
  ******  dc transfer curves               tnom=  25.000 temp=  25.000          
 ******  

   *** source        0:vdd              =  4.000e-01       ***

x

        volt    current    
                    vdd    
    0.         -5.383e-10  
  5.0000e-03   -6.402e-10  
  1.0000e-02   -7.613e-10  
  1.5000e-02   -9.054e-10  
  2.0000e-02   -1.077e-09  
  2.5000e-02   -1.281e-09  
  3.0000e-02   -1.523e-09  
  3.5000e-02   -1.811e-09  
  4.0000e-02   -2.154e-09  
  4.5000e-02   -2.562e-09  
  5.0000e-02   -3.046e-09  
  5.5000e-02   -3.623e-09  
  6.0000e-02   -4.309e-09  
  6.5000e-02   -5.124e-09  
  7.0000e-02   -6.093e-09  
  7.5000e-02   -7.245e-09  
  8.0000e-02   -8.614e-09  
  8.5000e-02   -1.024e-08  
  9.0000e-02   -1.218e-08  
  9.5000e-02   -1.447e-08  
  1.0000e-01   -1.720e-08  
  1.0500e-01   -2.044e-08  
  1.1000e-01   -2.429e-08  
  1.1500e-01   -2.886e-08  
  1.2000e-01   -3.427e-08  
  1.2500e-01   -4.069e-08  
  1.3000e-01   -4.830e-08  
  1.3500e-01   -5.731e-08  
  1.4000e-01   -6.797e-08  
  1.4500e-01   -8.057e-08  
  1.5000e-01   -9.544e-08  
  1.5500e-01   -1.130e-07  
  1.6000e-01   -1.336e-07  
  1.6500e-01   -1.579e-07  
  1.7000e-01   -1.863e-07  
  1.7500e-01   -2.196e-07  
  1.8000e-01   -2.584e-07  
  1.8500e-01   -3.036e-07  
  1.9000e-01   -3.560e-07  
  1.9500e-01   -4.165e-07  
  2.0000e-01   -4.861e-07  
  2.0500e-01   -5.658e-07  
  2.1000e-01   -6.567e-07  
  2.1500e-01   -7.597e-07  
  2.2000e-01   -8.759e-07  
  2.2500e-01   -1.006e-06  
  2.3000e-01   -1.152e-06  
  2.3500e-01   -1.313e-06  
  2.4000e-01   -1.491e-06  
  2.4500e-01   -1.685e-06  
  2.5000e-01   -1.898e-06  
  2.5500e-01   -2.129e-06  
  2.6000e-01   -2.377e-06  
  2.6500e-01   -2.645e-06  
  2.7000e-01   -2.931e-06  
  2.7500e-01   -3.236e-06  
  2.8000e-01   -3.560e-06  
  2.8500e-01   -3.904e-06  
  2.9000e-01   -4.266e-06  
  2.9500e-01   -4.648e-06  
  3.0000e-01   -5.050e-06  
  3.0500e-01   -5.473e-06  
  3.1000e-01   -5.918e-06  
  3.1500e-01   -6.386e-06  
  3.2000e-01   -6.880e-06  
  3.2500e-01   -7.403e-06  
  3.3000e-01   -7.962e-06  
  3.3500e-01   -8.476e-06  
  3.4000e-01   -8.974e-06  
  3.4500e-01   -9.499e-06  
  3.5000e-01   -1.004e-05  
  3.5500e-01   -1.058e-05  
  3.6000e-01   -1.113e-05  
  3.6500e-01   -1.169e-05  
  3.7000e-01   -1.224e-05  
  3.7500e-01   -1.279e-05  
  3.8000e-01   -1.334e-05  
  3.8500e-01   -1.389e-05  
  3.9000e-01   -1.444e-05  
  3.9500e-01   -1.499e-05  
  4.0000e-01   -1.554e-05  
  4.0500e-01   -1.609e-05  
  4.1000e-01   -1.665e-05  
  4.1500e-01   -1.722e-05  
  4.2000e-01   -1.780e-05  
  4.2500e-01   -1.840e-05  
  4.3000e-01   -1.900e-05  
  4.3500e-01   -1.963e-05  
  4.4000e-01   -2.027e-05  
  4.4500e-01   -2.093e-05  
  4.5000e-01   -2.161e-05  
  4.5500e-01   -2.231e-05  
  4.6000e-01   -2.304e-05  
  4.6500e-01   -2.378e-05  
  4.7000e-01   -2.455e-05  
  4.7500e-01   -2.533e-05  
  4.8000e-01   -2.614e-05  
  4.8500e-01   -2.696e-05  
  4.9000e-01   -2.780e-05  
  4.9500e-01   -2.866e-05  
  5.0000e-01   -2.954e-05  
y

          ***** job concluded
 ******  
  'ids vs vgs for gnrfet'                                                       
  ******  dc transfer curves               tnom=  25.000 temp=  25.000          
 ******  

   *** source        0:vdd              =  4.500e-01       ***

x

        volt    current    
                    vdd    
    0.         -6.567e-10  
  5.0000e-03   -7.809e-10  
  1.0000e-02   -9.286e-10  
  1.5000e-02   -1.104e-09  
  2.0000e-02   -1.313e-09  
  2.5000e-02   -1.562e-09  
  3.0000e-02   -1.858e-09  
  3.5000e-02   -2.209e-09  
  4.0000e-02   -2.627e-09  
  4.5000e-02   -3.125e-09  
  5.0000e-02   -3.716e-09  
  5.5000e-02   -4.419e-09  
  6.0000e-02   -5.255e-09  
  6.5000e-02   -6.249e-09  
  7.0000e-02   -7.430e-09  
  7.5000e-02   -8.834e-09  
  8.0000e-02   -1.050e-08  
  8.5000e-02   -1.249e-08  
  9.0000e-02   -1.484e-08  
  9.5000e-02   -1.764e-08  
  1.0000e-01   -2.096e-08  
  1.0500e-01   -2.491e-08  
  1.1000e-01   -2.959e-08  
  1.1500e-01   -3.514e-08  
  1.2000e-01   -4.173e-08  
  1.2500e-01   -4.952e-08  
  1.3000e-01   -5.876e-08  
  1.3500e-01   -6.968e-08  
  1.4000e-01   -8.259e-08  
  1.4500e-01   -9.782e-08  
  1.5000e-01   -1.158e-07  
  1.5500e-01   -1.369e-07  
  1.6000e-01   -1.618e-07  
  1.6500e-01   -1.909e-07  
  1.7000e-01   -2.249e-07  
  1.7500e-01   -2.646e-07  
  1.8000e-01   -3.108e-07  
  1.8500e-01   -3.643e-07  
  1.9000e-01   -4.261e-07  
  1.9500e-01   -4.971e-07  
  2.0000e-01   -5.784e-07  
  2.0500e-01   -6.709e-07  
  2.1000e-01   -7.758e-07  
  2.1500e-01   -8.940e-07  
  2.2000e-01   -1.027e-06  
  2.2500e-01   -1.174e-06  
  2.3000e-01   -1.338e-06  
  2.3500e-01   -1.518e-06  
  2.4000e-01   -1.715e-06  
  2.4500e-01   -1.930e-06  
  2.5000e-01   -2.164e-06  
  2.5500e-01   -2.415e-06  
  2.6000e-01   -2.685e-06  
  2.6500e-01   -2.974e-06  
  2.7000e-01   -3.282e-06  
  2.7500e-01   -3.609e-06  
  2.8000e-01   -3.955e-06  
  2.8500e-01   -4.321e-06  
  2.9000e-01   -4.706e-06  
  2.9500e-01   -5.111e-06  
  3.0000e-01   -5.537e-06  
  3.0500e-01   -5.985e-06  
  3.1000e-01   -6.457e-06  
  3.1500e-01   -6.955e-06  
  3.2000e-01   -7.482e-06  
  3.2500e-01   -8.046e-06  
  3.3000e-01   -8.545e-06  
  3.3500e-01   -9.049e-06  
  3.4000e-01   -9.577e-06  
  3.4500e-01   -1.012e-05  
  3.5000e-01   -1.066e-05  
  3.5500e-01   -1.121e-05  
  3.6000e-01   -1.177e-05  
  3.6500e-01   -1.232e-05  
  3.7000e-01   -1.287e-05  
  3.7500e-01   -1.342e-05  
  3.8000e-01   -1.397e-05  
  3.8500e-01   -1.452e-05  
  3.9000e-01   -1.507e-05  
  3.9500e-01   -1.562e-05  
  4.0000e-01   -1.617e-05  
  4.0500e-01   -1.674e-05  
  4.1000e-01   -1.731e-05  
  4.1500e-01   -1.789e-05  
  4.2000e-01   -1.848e-05  
  4.2500e-01   -1.909e-05  
  4.3000e-01   -1.972e-05  
  4.3500e-01   -2.036e-05  
  4.4000e-01   -2.103e-05  
  4.4500e-01   -2.171e-05  
  4.5000e-01   -2.242e-05  
  4.5500e-01   -2.314e-05  
  4.6000e-01   -2.389e-05  
  4.6500e-01   -2.466e-05  
  4.7000e-01   -2.545e-05  
  4.7500e-01   -2.626e-05  
  4.8000e-01   -2.708e-05  
  4.8500e-01   -2.793e-05  
  4.9000e-01   -2.879e-05  
  4.9500e-01   -2.966e-05  
  5.0000e-01   -3.056e-05  
y

          ***** job concluded
 ******  
  'ids vs vgs for gnrfet'                                                       
  ******  dc transfer curves               tnom=  25.000 temp=  25.000          
 ******  

   *** source        0:vdd              =  5.000e-01       ***

x

        volt    current    
                    vdd    
    0.         -8.010e-10  
  5.0000e-03   -9.525e-10  
  1.0000e-02   -1.133e-09  
  1.5000e-02   -1.347e-09  
  2.0000e-02   -1.602e-09  
  2.5000e-02   -1.905e-09  
  3.0000e-02   -2.266e-09  
  3.5000e-02   -2.695e-09  
  4.0000e-02   -3.205e-09  
  4.5000e-02   -3.811e-09  
  5.0000e-02   -4.532e-09  
  5.5000e-02   -5.389e-09  
  6.0000e-02   -6.409e-09  
  6.5000e-02   -7.620e-09  
  7.0000e-02   -9.060e-09  
  7.5000e-02   -1.077e-08  
  8.0000e-02   -1.281e-08  
  8.5000e-02   -1.522e-08  
  9.0000e-02   -1.809e-08  
  9.5000e-02   -2.150e-08  
  1.0000e-01   -2.554e-08  
  1.0500e-01   -3.034e-08  
  1.1000e-01   -3.603e-08  
  1.1500e-01   -4.278e-08  
  1.2000e-01   -5.078e-08  
  1.2500e-01   -6.024e-08  
  1.3000e-01   -7.143e-08  
  1.3500e-01   -8.466e-08  
  1.4000e-01   -1.003e-07  
  1.4500e-01   -1.187e-07  
  1.5000e-01   -1.403e-07  
  1.5500e-01   -1.657e-07  
  1.6000e-01   -1.955e-07  
  1.6500e-01   -2.303e-07  
  1.7000e-01   -2.709e-07  
  1.7500e-01   -3.181e-07  
  1.8000e-01   -3.728e-07  
  1.8500e-01   -4.358e-07  
  1.9000e-01   -5.083e-07  
  1.9500e-01   -5.911e-07  
  2.0000e-01   -6.854e-07  
  2.0500e-01   -7.922e-07  
  2.1000e-01   -9.124e-07  
  2.1500e-01   -1.047e-06  
  2.2000e-01   -1.197e-06  
  2.2500e-01   -1.363e-06  
  2.3000e-01   -1.546e-06  
  2.3500e-01   -1.746e-06  
  2.4000e-01   -1.963e-06  
  2.4500e-01   -2.199e-06  
  2.5000e-01   -2.454e-06  
  2.5500e-01   -2.726e-06  
  2.6000e-01   -3.018e-06  
  2.6500e-01   -3.329e-06  
  2.7000e-01   -3.658e-06  
  2.7500e-01   -4.007e-06  
  2.8000e-01   -4.375e-06  
  2.8500e-01   -4.763e-06  
  2.9000e-01   -5.172e-06  
  2.9500e-01   -5.601e-06  
  3.0000e-01   -6.052e-06  
  3.0500e-01   -6.528e-06  
  3.1000e-01   -7.030e-06  
  3.1500e-01   -7.562e-06  
  3.2000e-01   -8.132e-06  
  3.2500e-01   -8.616e-06  
  3.3000e-01   -9.125e-06  
  3.3500e-01   -9.655e-06  
  3.4000e-01   -1.020e-05  
  3.4500e-01   -1.074e-05  
  3.5000e-01   -1.129e-05  
  3.5500e-01   -1.185e-05  
  3.6000e-01   -1.240e-05  
  3.6500e-01   -1.295e-05  
  3.7000e-01   -1.350e-05  
  3.7500e-01   -1.405e-05  
  3.8000e-01   -1.460e-05  
  3.8500e-01   -1.515e-05  
  3.9000e-01   -1.570e-05  
  3.9500e-01   -1.626e-05  
  4.0000e-01   -1.682e-05  
  4.0500e-01   -1.739e-05  
  4.1000e-01   -1.798e-05  
  4.1500e-01   -1.857e-05  
  4.2000e-01   -1.918e-05  
  4.2500e-01   -1.981e-05  
  4.3000e-01   -2.046e-05  
  4.3500e-01   -2.113e-05  
  4.4000e-01   -2.181e-05  
  4.4500e-01   -2.252e-05  
  4.5000e-01   -2.325e-05  
  4.5500e-01   -2.400e-05  
  4.6000e-01   -2.477e-05  
  4.6500e-01   -2.557e-05  
  4.7000e-01   -2.638e-05  
  4.7500e-01   -2.721e-05  
  4.8000e-01   -2.805e-05  
  4.8500e-01   -2.892e-05  
  4.9000e-01   -2.979e-05  
  4.9500e-01   -3.069e-05  
  5.0000e-01   -3.159e-05  
y
 

          ***** job concluded
1****** HSPICE -- A-2008.03 32-BIT (Feb 26 2008) winnt ******                   
 ******  
  'ids vs vgs for gnrfet'                                                       
  ******  job statistics summary           tnom=  25.000 temp=  25.000          
 ******  

           total memory used        246 kbytes

  # nodes =      11 # elements=      20
  # diodes=       0 # bjts    =       0 # jfets   =       0 # mosfets =       0
  # va device =       0

    analysis           time    # points   tot. iter  conv.iter

    op point           0.00           1           0
    dc sweep           0.92        1111        3378
    readin             0.06
    errchk             0.01
    setup              0.02
    output             0.01
           total cpu time          1.16 seconds
           total elapsed time         1 seconds
               job started at  21:25:00 03/29/2020
               job ended   at  21:25:01 03/29/2020


 Init: hspice initialization file: C:\synopsys\Hspice_A-2008.03\hspice.ini
