$DATA1 SOURCE='HSPICE' VERSION='A-2008.03 32-BIT'
.TITLE '************************************************************************'
 tsw0             iwr              thermal_stability temper            
 alter#            
    failed           0.              68.9434          25.0000         
    1.0000         
