 ****** HSPICE -- A-2008.03 32-BIT (Feb 26 2008) winnt ******                   
  Copyright (C) 2008 Synopsys, Inc. All Rights Reserved.                        
  Unpublished-rights reserved under US copyright laws.
  This program is protected by law and is subject to the 
  terms and conditions of the license agreement found in:
    C:\synopsys\Hspice_A-2008.03\license.warn
  Use of this program is your acceptance to be bound by this 
  license agreement. HSPICE is the trademark of Synopsys, Inc.
  Input File: c:\users\18851\desktop\spice\mram-spice\imtj\pulse.sp             
 Init: read install configuration file: C:\synopsys\Hspice_A-2008.03\meta.cfg
 Init: hspice initialization file: C:\synopsys\Hspice_A-2008.03\hspice.ini




 .option post 
 .tran .5ns 75ns
 vpulse 1  0  pulse( v1 v2 td tr tf pw per )
 r1 1 0 1
 .param v1=1v v2=2v td=5ns tr=1ns tf=1ns pw=5ns per=12ns
 .end

 ***********************************************************************
 ** runlvl is invoked, you can disable it by:
      a) Add option runlvl=0 to your current simulation job.
      b) Copy $installdir/hspice.ini to your HOME directory and
         customize it by adding option runlvl=0, which disables
         it for all of your simulation jobs.
      c) Re-invoke $installdir/bin/config program and unselect the
         option runlvl setting in box 'hspice.ini' which disables
         it for whole group simulation jobs.

 ** runlvl is invoked, some options are ignored or automatically set:
      Options below are automatically set(user setting will overwrite them):
      if runlvl=6,            .option bypass=0
      if runlvl=[1|2|3|4|5],  .option bypass=2

      Options below are ignored, they are replaced by automated algorithms:
        lvltim    dvdt      ft    fast   trtol  absvar  relvar
          relq  chgtol    dvtr    imin    itl3    rmax

 ** runlvl is invoked, actual option value used by HSPICE are:
       runlvl= 3       bypass= 2      mbypass=   2.00   bytol= 100.00u
 ***********************************************************************


 **warning** dc voltage reset to initial transient source value
             in source        0:vpulse              new dc=  0.1000D+01

 
      
1****** HSPICE -- A-2008.03 32-BIT (Feb 26 2008) winnt ******                   
 ******  
 file pulse.sp test of pulse                                                    
  ******  operating point information      tnom=  25.000 temp=  25.000          
 ******  
 ***** operating point status is voltage   simulation time is     0.     
    node    =voltage

 +0:1       =   1.0000 


          ***** job concluded
1****** HSPICE -- A-2008.03 32-BIT (Feb 26 2008) winnt ******                   
 ******  
 file pulse.sp test of pulse                                                    
  ******  job statistics summary           tnom=  25.000 temp=  25.000          
 ******  

           total memory used         23 kbytes

  # nodes =       2 # elements=       2
  # diodes=       0 # bjts    =       0 # jfets   =       0 # mosfets =       0
  # va device =       0

    analysis           time    # points   tot. iter  conv.iter

    op point           0.01           1           3
    transient          0.06         151         128          64 rev=         0
    readin             0.01
    errchk             0.00
    setup              0.00
    output             0.00
           total cpu time          0.11 seconds
           total elapsed time         1 seconds
               job started at  14:36:04 03/30/2020
               job ended   at  14:36:04 03/30/2020


 Init: hspice initialization file: C:\synopsys\Hspice_A-2008.03\hspice.ini
